*Heading
** Job name: OSU_sm_1_size_10_SVE_4_1 Model name: OSU_sm_1_size_10_SVE_4_1
** Generated by: Abaqus/CAE 2020
*Preprint, echo=NO, model=NO, history=NO, contact=NO
**
** PARTS
**
*Part, name=GRAIN-23
*Node
      1,         3.75,         8.75
      2,         3.75,          7.5
      3,         3.75,         6.25
      4,2.,         6.25
      5,           2.,         8.75
      6,           2.,          7.5
      7,           5.,         6.25
      8,           5.,         8.75
      9,           5.,          7.5
     10,          7.5,          7.5
     11,          7.5,           5.
     12,          7.5,          2.5
     13,          7.5,           0.
     14,           2.,         3.75
     15,           2.,           5.
     16,           5.,           5.
     17,         3.75,           5.
     18,         3.75,         3.75
     19,           5.,         3.75
     20,           5.,          2.5
** ... 560 like lines cut
*Element, type=CPS3
  1,   5,   6,   1
  2,   2,   1,   6
  3,  69,  71,   1
  4,   5,   1,  71
  5,   4,  15,   3
  6,  17,   3,  15
  7,   2,   6,   3
  8,   4,   3,   6
  9,  10,   9,   7
 10,   7,  11,  10
 11,   7,  16,  11
 12,  57,  66,   8
 13,   8,  10,  57
 14,   8,   9,  10
 15,  12,  20,  23
 16,  23,  13,  12
 17,  23,  22,  13
 18,  11,  16,  19
 19,  19,  12,  11
 20,  19,  20,  12
** ... 527 like lines cut
*Element, type=CPS4
548,   9,   8,   1,   2
549,  66,  69,   1,   8
550,   9,   2,   3,   7
551,  16,   7,   3,  17
552,  30,  29,  10,  11
553,  77,  57,  10,  29
554,  30,  11,  12,  32
555,  33,  32,  12,  13
556,  20,  19,  18,  21
557,  16,  17,  18,  19
558,  20,  21,  24,  23
559,  22,  23,  24,  25
560,  80,  78,  31,  35
561,  36,  35,  31,  34
562,  37,  38,  82,  81
563,  38,  39,  83,  82
564,  39,  40,  84,  83
565,  40,  41,  85,  84
566,  41,  42,  86,  85
567,  42,  43,  87,  86
** ... 212 like lines cut
*Elset, elset=MATERIAL_23ELSET, generate
   1,  779,    1
*Nset, nset=BOUNDARY_NODES_1_23
 4,
*Nset, nset=BOUNDARY_NODES_2_23
 15,
*Nset, nset=BOUNDARY_NODES_3_23
 6,
*Nset, nset=BOUNDARY_NODES_4_23
 5,
*Nset, nset=BOUNDARY_NODES_5_23
 71,
*Nset, nset=BOUNDARY_NODES_6_23
 13,
*Nset, nset=BOUNDARY_NODES_7_23
 22,
*Nset, nset=BOUNDARY_NODES_8_23
 33,
*Nset, nset=BOUNDARY_NODES_9_23
 14,
*Nset, nset=BOUNDARY_NODES_10_23
 26,
*Nset, nset=BOUNDARY_NODES_11_23
 25,
*Nset, nset=BOUNDARY_NODES_12_23
 28,
*Nset, nset=BOUNDARY_NODES_13_23
 27,
*Nset, nset=BOUNDARY_NODES_14_23
 34,
*Nset, nset=BOUNDARY_NODES_15_23
 36,
*Nset, nset=BOUNDARY_NODES_16_23
 37,
*Nset, nset=BOUNDARY_NODES_17_23
 38,
*Nset, nset=BOUNDARY_NODES_18_23
 39,
*Nset, nset=BOUNDARY_NODES_19_23
 40,
*Nset, nset=BOUNDARY_NODES_20_23
** ... 161 like lines cut
*Elset, elset=_SURF-MASTER_23_34_S1, internal
 307, 309, 311, 318, 322, 324, 332, 337, 339, 343, 345, 347, 372, 406, 417, 419
 431, 445, 477, 495, 503, 505
*Elset, elset=_SURF-MASTER_23_34_S2, internal
 277, 303, 334, 349, 376, 405, 412, 413, 416, 421, 424, 433, 436, 476, 479, 482
 491, 497, 500, 515, 518
*Elset, elset=_SURF-MASTER_23_34_S3, internal
 276, 283, 285, 287, 289, 321
*Elset, elset=_SURF-MASTER_23_34_S1_1, internal
 307, 309, 311, 318, 322, 324, 332, 337, 339, 343, 345, 347, 372, 406, 417, 419
 431, 445, 477, 495, 503, 505
*Elset, elset=_SURF-MASTER_23_34_S2_1, internal
 277, 303, 334, 349, 376, 405, 412, 413, 416, 421, 424, 433, 436, 476, 479, 482
 491, 497, 500, 515, 518
*Elset, elset=_SURF-MASTER_23_34_S3_1, internal
 276, 283, 285, 287, 289, 321
*Surface, type=ELEMENT, name=SURF-MASTER_23_34
_SURF-MASTER_23_34_S1_1, S1
_SURF-MASTER_23_34_S2_1, S2
_SURF-MASTER_23_34_S3_1, S3
** Section: Section-1-MATERIAL_23ELSET
*Solid Section, elset=MATERIAL_23ELSET, material=MATERIAL_23
1.,
*End Part
**  
*Part, name=GRAIN-34
*Node
      1,         3.75,        78.75
      2,         3.75,         77.5
      3,         3.75,   75.6829987
      4,           2.,          76.
      5,           2.,        78.75
      6,           2.,         77.5
      7,         8.75,        76.25
      8,          7.5,        76.25
      9,           5.,        76.25
     10,         6.25,        76.25
     11,           5.,        78.75
     12,           5.,         77.5
     13,         6.25,         77.5
     14,          7.5,         77.5
     15,         8.75,         77.5
     16,         6.25,   75.3379974
     17,          7.5,   75.2129974
     18,         8.75,   75.1210022
     19,           5.,   75.4950027
     20,        13.75,         77.5
** ... 266 like lines cut
*Element, type=CPS3
  1,   5,   6,   1
  2,   2,   1,   6
  3,  88,  90,   1
  4,   5,   1,  90
  5,   6,   4,   2
  6,   3,   2,   4
  7,   3,   9,   2
  8,  12,   2,   9
  9,   9,   3,  19
 10,   8,  17,   7
 11,  18,   7,  17
 12,   7,  18,  23
 13,  39,  23,  18
 14,  10,  16,   8
 15,  17,   8,  16
 16,   9,  19,  10
 17,  16,  10,  19
 18,  76,  85,  11
 19,  11,  13,  76
 20,  11,  12,  13
** ... 271 like lines cut
*Element, type=CPS4
292,  12,  11,   1,   2
293,  85,  88,   1,  11
294,  14,   8,   7,  15
295,  25,  15,   7,  23
296,  12,   9,  10,  13
297,  14,  13,  10,   8
298,  27,  22,  21,  20
299,  32,  20,  21,  31
300,  25,  23,  24,  26
301,  27,  26,  24,  22
302,  34,  29,  28,  35
303,  32,  31,  30,  33
304,  34,  33,  30,  29
305,  50,  45,  44,  51
306, 117,  51,  44, 111
307, 112, 111,  44,  58
308, 117, 116,  55,  51
309,  50,  51,  55,  53
310,  52,  53,  55,  54
311, 114,  54,  55, 116
** ... 77 like lines cut
*Elset, elset=MATERIAL_34ELSET, generate
   1,  388,    1
*Nset, nset=BOUNDARY_NODES_1_34
 4,
*Nset, nset=BOUNDARY_NODES_2_34
 6,
*Nset, nset=BOUNDARY_NODES_3_34
 5,
*Nset, nset=BOUNDARY_NODES_4_34
 90,
*Nset, nset=BOUNDARY_NODES_5_34
 67,
*Nset, nset=BOUNDARY_NODES_6_34
 78,
*Nset, nset=BOUNDARY_NODES_7_34
 68,
*Nset, nset=BOUNDARY_NODES_8_34
 69,
*Nset, nset=BOUNDARY_NODES_9_34
 197,
*Nset, nset=BOUNDARY_NODES_10_34
 77,
*Nset, nset=BOUNDARY_NODES_11_34
 89,
*Nset, nset=BOUNDARY_NODES_12_34
 91,
*Nset, nset=BOUNDARY_NODES_13_34
 173,
*Nset, nset=BOUNDARY_NODES_14_34
 184,
*Nset, nset=BOUNDARY_NODES_15_34
 174,
*Nset, nset=BOUNDARY_NODES_16_34
 175,
*Nset, nset=BOUNDARY_NODES_17_34
 271,
*Nset, nset=BOUNDARY_NODES_18_34
 183,
*Nset, nset=BOUNDARY_NODES_19_34
 195,
*Nset, nset=BOUNDARY_NODES_20_34
** ... 37 like lines cut
*Elset, elset=_SURF-SLAVE_34_23_S1, internal
  28,  30,  32,  39,  44,  46,  57,  60,  62,  64,  66,  71, 146, 161, 163, 169
 175, 181, 263, 283, 285
*Elset, elset=_SURF-SLAVE_34_23_S2, internal
   9,  43,  59,  68,  73, 145, 150, 153, 158, 171, 174, 183, 186, 251, 265, 268
 277, 280, 287, 288, 289
*Elset, elset=_SURF-SLAVE_34_23_S3, internal
  6, 11, 13, 15, 17, 35
*Elset, elset=_SURF-SLAVE_34_23_S1_1, internal
  28,  30,  32,  39,  44,  46,  57,  60,  62,  64,  66,  71, 146, 161, 163, 169
 175, 181, 263, 283, 285
*Elset, elset=_SURF-SLAVE_34_23_S2_1, internal
   9,  43,  59,  68,  73, 145, 150, 153, 158, 171, 174, 183, 186, 251, 265, 268
 277, 280, 287, 288, 289
*Elset, elset=_SURF-SLAVE_34_23_S3_1, internal
  6, 11, 13, 15, 17, 35
*Surface, type=ELEMENT, name=SURF-SLAVE_34_23
_SURF-SLAVE_34_23_S1_1, S1
_SURF-SLAVE_34_23_S2_1, S2
_SURF-SLAVE_34_23_S3_1, S3
** Section: Section-2-MATERIAL_34ELSET
*Solid Section, elset=MATERIAL_34ELSET, material=MATERIAL_34
1.,
*End Part
**  
**
** ASSEMBLY
**
*Assembly, name=Assembly
**  
*Instance, name=GRAIN-23, part=GRAIN-23
*End Instance
**  
*Instance, name=GRAIN-34, part=GRAIN-34
*End Instance
**  
*End Assembly
** 
** MATERIALS
** 
** Materials Properties
** 
*Material, name=MATERIAL_23
*Density
 1e-05,
*Elastic
1000., 0.3
*Material, name=MATERIAL_34
*Density
 1e-05,
*Elastic
1000., 0.3
** 
** INTERACTION PROPERTIES
** 
*Surface Interaction, name=COHPROP
1.,
*Surface Behavior, pressure-overclosure=HARD
*Cohesive Behavior
4540.,4540.,4540.
*Surface Interaction, name=GENERALPROP
1.,
*Surface Behavior, pressure-overclosure=HARD
** 
** INTERACTIONS
** 
** Interaction: general_contact
*Contact
*Contact Inclusions, ALL EXTERIOR
*Contact Property Assignment
 ,  , GENERALPROP
GRAIN-23.SURF-MASTER_23_34 , GRAIN-34.SURF-SLAVE_34_23 , COHPROP
** ----------------------------------------------------------------
** 
** STEP: Step-1
** 
*Step, name=Step-1, nlgeom=YES
*Static
0.1, 1., 1e-05, 0.25
** 
** BOUNDARY CONDITIONS
** 
** Name: Disp-BC-1 Type: Displacement/Rotation
*Boundary
GRAIN-23.BOUNDARY_NODES_1_23, 1, 1, -0.0048
** Name: Disp-BC-2 Type: Displacement/Rotation
*Boundary
GRAIN-23.BOUNDARY_NODES_1_23, 2, 2
** Name: Disp-BC-3 Type: Displacement/Rotation
*Boundary
GRAIN-23.BOUNDARY_NODES_2_23, 1, 1, -0.0048
** Name: Disp-BC-4 Type: Displacement/Rotation
*Boundary
GRAIN-23.BOUNDARY_NODES_2_23, 2, 2
** Name: Disp-BC-5 Type: Displacement/Rotation
*Boundary
GRAIN-23.BOUNDARY_NODES_3_23, 1, 1, -0.0048
** Name: Disp-BC-6 Type: Displacement/Rotation
*Boundary
GRAIN-23.BOUNDARY_NODES_3_23, 2, 2
** Name: Disp-BC-7 Type: Displacement/Rotation
*Boundary
GRAIN-23.BOUNDARY_NODES_4_23, 1, 1, -0.0048
** Name: Disp-BC-8 Type: Displacement/Rotation
*Boundary
GRAIN-23.BOUNDARY_NODES_4_23, 2, 2
** Name: Disp-BC-9 Type: Displacement/Rotation
*Boundary
GRAIN-23.BOUNDARY_NODES_5_23, 1, 1, -0.0048
** Name: Disp-BC-10 Type: Displacement/Rotation
*Boundary
GRAIN-23.BOUNDARY_NODES_5_23, 2, 2
** Name: Disp-BC-11 Type: Displacement/Rotation
*Boundary
GRAIN-23.BOUNDARY_NODES_6_23, 1, 1, -0.00425
** Name: Disp-BC-12 Type: Displacement/Rotation
*Boundary
GRAIN-23.BOUNDARY_NODES_6_23, 2, 2
** Name: Disp-BC-13 Type: Displacement/Rotation
*Boundary
GRAIN-23.BOUNDARY_NODES_7_23, 1, 1, -0.0045
** Name: Disp-BC-14 Type: Displacement/Rotation
*Boundary
GRAIN-23.BOUNDARY_NODES_7_23, 2, 2
** Name: Disp-BC-15 Type: Displacement/Rotation
*Boundary
GRAIN-23.BOUNDARY_NODES_8_23, 1, 1, -0.004
** Name: Disp-BC-16 Type: Displacement/Rotation
*Boundary
GRAIN-23.BOUNDARY_NODES_8_23, 2, 2
** Name: Disp-BC-17 Type: Displacement/Rotation
*Boundary
GRAIN-23.BOUNDARY_NODES_9_23, 1, 1, -0.0048
** Name: Disp-BC-18 Type: Displacement/Rotation
*Boundary
GRAIN-23.BOUNDARY_NODES_9_23, 2, 2
** Name: Disp-BC-19 Type: Displacement/Rotation
*Boundary
GRAIN-23.BOUNDARY_NODES_10_23, 1, 1, -0.0048
** Name: Disp-BC-20 Type: Displacement/Rotation
*Boundary
GRAIN-23.BOUNDARY_NODES_10_23, 2, 2
** Name: Disp-BC-21 Type: Displacement/Rotation
*Boundary
GRAIN-23.BOUNDARY_NODES_11_23, 1, 1, -0.004625
** Name: Disp-BC-22 Type: Displacement/Rotation
*Boundary
GRAIN-23.BOUNDARY_NODES_11_23, 2, 2
** Name: Disp-BC-23 Type: Displacement/Rotation
*Boundary
GRAIN-23.BOUNDARY_NODES_12_23, 1, 1, -0.0048
** Name: Disp-BC-24 Type: Displacement/Rotation
*Boundary
GRAIN-23.BOUNDARY_NODES_12_23, 2, 2
** Name: Disp-BC-25 Type: Displacement/Rotation
*Boundary
GRAIN-23.BOUNDARY_NODES_13_23, 1, 1, -0.0048
** Name: Disp-BC-26 Type: Displacement/Rotation
*Boundary
GRAIN-23.BOUNDARY_NODES_13_23, 2, 2
** Name: Disp-BC-27 Type: Displacement/Rotation
*Boundary
GRAIN-23.BOUNDARY_NODES_14_23, 1, 1, -0.0035
** Name: Disp-BC-28 Type: Displacement/Rotation
*Boundary
GRAIN-23.BOUNDARY_NODES_14_23, 2, 2
** Name: Disp-BC-29 Type: Displacement/Rotation
*Boundary
GRAIN-23.BOUNDARY_NODES_15_23, 1, 1, -0.003
** Name: Disp-BC-30 Type: Displacement/Rotation
*Boundary
GRAIN-23.BOUNDARY_NODES_15_23, 2, 2
** Name: Disp-BC-31 Type: Displacement/Rotation
*Boundary
GRAIN-23.BOUNDARY_NODES_16_23, 1, 1, -0.002
** Name: Disp-BC-32 Type: Displacement/Rotation
*Boundary
GRAIN-23.BOUNDARY_NODES_16_23, 2, 2
** Name: Disp-BC-33 Type: Displacement/Rotation
*Boundary
GRAIN-23.BOUNDARY_NODES_17_23, 1, 1, -0.001
** Name: Disp-BC-34 Type: Displacement/Rotation
*Boundary
GRAIN-23.BOUNDARY_NODES_17_23, 2, 2
** Name: Disp-BC-35 Type: Displacement/Rotation
*Boundary
GRAIN-23.BOUNDARY_NODES_18_23, 1, 1
** Name: Disp-BC-36 Type: Displacement/Rotation
*Boundary
GRAIN-23.BOUNDARY_NODES_18_23, 2, 2
** Name: Disp-BC-37 Type: Displacement/Rotation
*Boundary
GRAIN-23.BOUNDARY_NODES_19_23, 1, 1, 0.001
** Name: Disp-BC-38 Type: Displacement/Rotation
*Boundary
GRAIN-23.BOUNDARY_NODES_19_23, 2, 2
** Name: Disp-BC-39 Type: Displacement/Rotation
*Boundary
GRAIN-23.BOUNDARY_NODES_20_23, 1, 1, 0.002
** Name: Disp-BC-40 Type: Displacement/Rotation
*Boundary
GRAIN-23.BOUNDARY_NODES_20_23, 2, 2
** Name: Disp-BC-41 Type: Displacement/Rotation
*Boundary
GRAIN-23.BOUNDARY_NODES_21_23, 1, 1, 0.003
** Name: Disp-BC-42 Type: Displacement/Rotation
*Boundary
GRAIN-23.BOUNDARY_NODES_21_23, 2, 2
** Name: Disp-BC-43 Type: Displacement/Rotation
*Boundary
GRAIN-23.BOUNDARY_NODES_22_23, 1, 1, 0.004
** Name: Disp-BC-44 Type: Displacement/Rotation
*Boundary
GRAIN-23.BOUNDARY_NODES_22_23, 2, 2
** Name: Disp-BC-45 Type: Displacement/Rotation
*Boundary
GRAIN-23.BOUNDARY_NODES_23_23, 1, 1, 0.005
** Name: Disp-BC-46 Type: Displacement/Rotation
*Boundary
GRAIN-23.BOUNDARY_NODES_23_23, 2, 2
** Name: Disp-BC-47 Type: Displacement/Rotation
*Boundary
GRAIN-23.BOUNDARY_NODES_24_23, 1, 1, 0.005
** Name: Disp-BC-48 Type: Displacement/Rotation
*Boundary
GRAIN-23.BOUNDARY_NODES_24_23, 2, 2
** Name: Disp-BC-49 Type: Displacement/Rotation
*Boundary
GRAIN-23.BOUNDARY_NODES_25_23, 1, 1, -0.0048
** Name: Disp-BC-50 Type: Displacement/Rotation
*Boundary
GRAIN-23.BOUNDARY_NODES_25_23, 2, 2
** Name: Disp-BC-51 Type: Displacement/Rotation
*Boundary
GRAIN-23.BOUNDARY_NODES_26_23, 1, 1, -0.0048
** Name: Disp-BC-52 Type: Displacement/Rotation
*Boundary
GRAIN-23.BOUNDARY_NODES_26_23, 2, 2
** Name: Disp-BC-53 Type: Displacement/Rotation
*Boundary
GRAIN-23.BOUNDARY_NODES_27_23, 1, 1, -0.0048
** Name: Disp-BC-54 Type: Displacement/Rotation
*Boundary
GRAIN-23.BOUNDARY_NODES_27_23, 2, 2
** Name: Disp-BC-55 Type: Displacement/Rotation
*Boundary
GRAIN-23.BOUNDARY_NODES_28_23, 1, 1, -0.0048
** Name: Disp-BC-56 Type: Displacement/Rotation
*Boundary
GRAIN-23.BOUNDARY_NODES_28_23, 2, 2
** Name: Disp-BC-57 Type: Displacement/Rotation
*Boundary
GRAIN-23.BOUNDARY_NODES_29_23, 1, 1, -0.0048
** Name: Disp-BC-58 Type: Displacement/Rotation
*Boundary
GRAIN-23.BOUNDARY_NODES_29_23, 2, 2
** Name: Disp-BC-59 Type: Displacement/Rotation
*Boundary
GRAIN-23.BOUNDARY_NODES_30_23, 1, 1, -0.0048
** Name: Disp-BC-60 Type: Displacement/Rotation
*Boundary
GRAIN-23.BOUNDARY_NODES_30_23, 2, 2
** Name: Disp-BC-61 Type: Displacement/Rotation
*Boundary
GRAIN-23.BOUNDARY_NODES_31_23, 1, 1, -0.0048
** Name: Disp-BC-62 Type: Displacement/Rotation
*Boundary
GRAIN-23.BOUNDARY_NODES_31_23, 2, 2
** Name: Disp-BC-63 Type: Displacement/Rotation
*Boundary
GRAIN-23.BOUNDARY_NODES_32_23, 1, 1, -0.0048
** Name: Disp-BC-64 Type: Displacement/Rotation
*Boundary
GRAIN-23.BOUNDARY_NODES_32_23, 2, 2
** Name: Disp-BC-65 Type: Displacement/Rotation
*Boundary
GRAIN-23.BOUNDARY_NODES_33_23, 1, 1, 0.005
** Name: Disp-BC-66 Type: Displacement/Rotation
*Boundary
GRAIN-23.BOUNDARY_NODES_33_23, 2, 2
** Name: Disp-BC-67 Type: Displacement/Rotation
*Boundary
GRAIN-23.BOUNDARY_NODES_34_23, 1, 1, -0.0048
** Name: Disp-BC-68 Type: Displacement/Rotation
*Boundary
GRAIN-23.BOUNDARY_NODES_34_23, 2, 2
** Name: Disp-BC-69 Type: Displacement/Rotation
*Boundary
GRAIN-23.BOUNDARY_NODES_35_23, 1, 1, -0.0048
** Name: Disp-BC-70 Type: Displacement/Rotation
*Boundary
GRAIN-23.BOUNDARY_NODES_35_23, 2, 2
** Name: Disp-BC-71 Type: Displacement/Rotation
*Boundary
GRAIN-23.BOUNDARY_NODES_36_23, 1, 1, -0.0048
** Name: Disp-BC-72 Type: Displacement/Rotation
*Boundary
GRAIN-23.BOUNDARY_NODES_36_23, 2, 2
** Name: Disp-BC-73 Type: Displacement/Rotation
*Boundary
GRAIN-23.BOUNDARY_NODES_37_23, 1, 1, -0.0048
** Name: Disp-BC-74 Type: Displacement/Rotation
*Boundary
GRAIN-23.BOUNDARY_NODES_37_23, 2, 2
** Name: Disp-BC-75 Type: Displacement/Rotation
*Boundary
GRAIN-23.BOUNDARY_NODES_38_23, 1, 1, -0.0048
** Name: Disp-BC-76 Type: Displacement/Rotation
*Boundary
GRAIN-23.BOUNDARY_NODES_38_23, 2, 2
** Name: Disp-BC-77 Type: Displacement/Rotation
*Boundary
GRAIN-23.BOUNDARY_NODES_39_23, 1, 1, -0.0048
** Name: Disp-BC-78 Type: Displacement/Rotation
*Boundary
GRAIN-23.BOUNDARY_NODES_39_23, 2, 2
** Name: Disp-BC-79 Type: Displacement/Rotation
*Boundary
GRAIN-23.BOUNDARY_NODES_40_23, 1, 1, -0.0048
** Name: Disp-BC-80 Type: Displacement/Rotation
*Boundary
GRAIN-23.BOUNDARY_NODES_40_23, 2, 2
** Name: Disp-BC-81 Type: Displacement/Rotation
*Boundary
GRAIN-23.BOUNDARY_NODES_41_23, 1, 1, -0.0048
** Name: Disp-BC-82 Type: Displacement/Rotation
*Boundary
GRAIN-23.BOUNDARY_NODES_41_23, 2, 2
** Name: Disp-BC-83 Type: Displacement/Rotation
*Boundary
GRAIN-23.BOUNDARY_NODES_42_23, 1, 1, 0.005
** Name: Disp-BC-84 Type: Displacement/Rotation
*Boundary
GRAIN-23.BOUNDARY_NODES_42_23, 2, 2
** Name: Disp-BC-85 Type: Displacement/Rotation
*Boundary
GRAIN-23.BOUNDARY_NODES_43_23, 1, 1, -0.0048
** Name: Disp-BC-86 Type: Displacement/Rotation
*Boundary
GRAIN-23.BOUNDARY_NODES_43_23, 2, 2
** Name: Disp-BC-87 Type: Displacement/Rotation
*Boundary
GRAIN-23.BOUNDARY_NODES_44_23, 1, 1, -0.0048
** Name: Disp-BC-88 Type: Displacement/Rotation
*Boundary
GRAIN-23.BOUNDARY_NODES_44_23, 2, 2
** Name: Disp-BC-89 Type: Displacement/Rotation
*Boundary
GRAIN-23.BOUNDARY_NODES_45_23, 1, 1, -0.0048
** Name: Disp-BC-90 Type: Displacement/Rotation
*Boundary
GRAIN-23.BOUNDARY_NODES_45_23, 2, 2
** Name: Disp-BC-91 Type: Displacement/Rotation
*Boundary
GRAIN-23.BOUNDARY_NODES_46_23, 1, 1, -0.0048
** Name: Disp-BC-92 Type: Displacement/Rotation
*Boundary
GRAIN-23.BOUNDARY_NODES_46_23, 2, 2
** Name: Disp-BC-93 Type: Displacement/Rotation
*Boundary
GRAIN-23.BOUNDARY_NODES_47_23, 1, 1, -0.0048
** Name: Disp-BC-94 Type: Displacement/Rotation
*Boundary
GRAIN-23.BOUNDARY_NODES_47_23, 2, 2
** Name: Disp-BC-95 Type: Displacement/Rotation
*Boundary
GRAIN-23.BOUNDARY_NODES_48_23, 1, 1, -0.0048
** Name: Disp-BC-96 Type: Displacement/Rotation
*Boundary
GRAIN-23.BOUNDARY_NODES_48_23, 2, 2
** Name: Disp-BC-97 Type: Displacement/Rotation
*Boundary
GRAIN-23.BOUNDARY_NODES_49_23, 1, 1, -0.0048
** Name: Disp-BC-98 Type: Displacement/Rotation
*Boundary
GRAIN-23.BOUNDARY_NODES_49_23, 2, 2
** Name: Disp-BC-99 Type: Displacement/Rotation
*Boundary
GRAIN-23.BOUNDARY_NODES_50_23, 1, 1, -0.0048
** Name: Disp-BC-100 Type: Displacement/Rotation
*Boundary
GRAIN-23.BOUNDARY_NODES_50_23, 2, 2
** Name: Disp-BC-101 Type: Displacement/Rotation
*Boundary
GRAIN-23.BOUNDARY_NODES_51_23, 1, 1, 0.005
** Name: Disp-BC-102 Type: Displacement/Rotation
*Boundary
GRAIN-23.BOUNDARY_NODES_51_23, 2, 2
** Name: Disp-BC-103 Type: Displacement/Rotation
*Boundary
GRAIN-23.BOUNDARY_NODES_52_23, 1, 1, -0.0048
** Name: Disp-BC-104 Type: Displacement/Rotation
*Boundary
GRAIN-23.BOUNDARY_NODES_52_23, 2, 2
** Name: Disp-BC-105 Type: Displacement/Rotation
*Boundary
GRAIN-23.BOUNDARY_NODES_53_23, 1, 1, -0.0048
** Name: Disp-BC-106 Type: Displacement/Rotation
*Boundary
GRAIN-23.BOUNDARY_NODES_53_23, 2, 2
** Name: Disp-BC-107 Type: Displacement/Rotation
*Boundary
GRAIN-23.BOUNDARY_NODES_54_23, 1, 1, -0.0048
** Name: Disp-BC-108 Type: Displacement/Rotation
*Boundary
GRAIN-23.BOUNDARY_NODES_54_23, 2, 2
** Name: Disp-BC-109 Type: Displacement/Rotation
*Boundary
GRAIN-23.BOUNDARY_NODES_55_23, 1, 1, -0.0048
** Name: Disp-BC-110 Type: Displacement/Rotation
*Boundary
GRAIN-23.BOUNDARY_NODES_55_23, 2, 2
** Name: Disp-BC-111 Type: Displacement/Rotation
*Boundary
GRAIN-23.BOUNDARY_NODES_56_23, 1, 1, -0.0048
** Name: Disp-BC-112 Type: Displacement/Rotation
*Boundary
GRAIN-23.BOUNDARY_NODES_56_23, 2, 2
** Name: Disp-BC-113 Type: Displacement/Rotation
*Boundary
GRAIN-23.BOUNDARY_NODES_57_23, 1, 1, -0.0048
** Name: Disp-BC-114 Type: Displacement/Rotation
*Boundary
GRAIN-23.BOUNDARY_NODES_57_23, 2, 2
** Name: Disp-BC-115 Type: Displacement/Rotation
*Boundary
GRAIN-23.BOUNDARY_NODES_58_23, 1, 1, -0.0048
** Name: Disp-BC-116 Type: Displacement/Rotation
*Boundary
GRAIN-23.BOUNDARY_NODES_58_23, 2, 2
** Name: Disp-BC-117 Type: Displacement/Rotation
*Boundary
GRAIN-23.BOUNDARY_NODES_59_23, 1, 1, -0.0048
** Name: Disp-BC-118 Type: Displacement/Rotation
*Boundary
GRAIN-23.BOUNDARY_NODES_59_23, 2, 2
** Name: Disp-BC-119 Type: Displacement/Rotation
*Boundary
GRAIN-23.BOUNDARY_NODES_60_23, 1, 1, 0.005
** Name: Disp-BC-120 Type: Displacement/Rotation
*Boundary
GRAIN-23.BOUNDARY_NODES_60_23, 2, 2
** Name: Disp-BC-121 Type: Displacement/Rotation
*Boundary
GRAIN-23.BOUNDARY_NODES_61_23, 1, 1, -0.0048
** Name: Disp-BC-122 Type: Displacement/Rotation
*Boundary
GRAIN-23.BOUNDARY_NODES_61_23, 2, 2
** Name: Disp-BC-123 Type: Displacement/Rotation
*Boundary
GRAIN-23.BOUNDARY_NODES_62_23, 1, 1, -0.0048
** Name: Disp-BC-124 Type: Displacement/Rotation
*Boundary
GRAIN-23.BOUNDARY_NODES_62_23, 2, 2
** Name: Disp-BC-125 Type: Displacement/Rotation
*Boundary
GRAIN-23.BOUNDARY_NODES_63_23, 1, 1, -0.0048
** Name: Disp-BC-126 Type: Displacement/Rotation
*Boundary
GRAIN-23.BOUNDARY_NODES_63_23, 2, 2
** Name: Disp-BC-127 Type: Displacement/Rotation
*Boundary
GRAIN-23.BOUNDARY_NODES_64_23, 1, 1, -0.0048
** Name: Disp-BC-128 Type: Displacement/Rotation
*Boundary
GRAIN-23.BOUNDARY_NODES_64_23, 2, 2
** Name: Disp-BC-129 Type: Displacement/Rotation
*Boundary
GRAIN-23.BOUNDARY_NODES_65_23, 1, 1, -0.0048
** Name: Disp-BC-130 Type: Displacement/Rotation
*Boundary
GRAIN-23.BOUNDARY_NODES_65_23, 2, 2
** Name: Disp-BC-131 Type: Displacement/Rotation
*Boundary
GRAIN-23.BOUNDARY_NODES_66_23, 1, 1, -0.0048
** Name: Disp-BC-132 Type: Displacement/Rotation
*Boundary
GRAIN-23.BOUNDARY_NODES_66_23, 2, 2
** Name: Disp-BC-133 Type: Displacement/Rotation
*Boundary
GRAIN-23.BOUNDARY_NODES_67_23, 1, 1, -0.0048
** Name: Disp-BC-134 Type: Displacement/Rotation
*Boundary
GRAIN-23.BOUNDARY_NODES_67_23, 2, 2
** Name: Disp-BC-135 Type: Displacement/Rotation
*Boundary
GRAIN-23.BOUNDARY_NODES_68_23, 1, 1, -0.0048
** Name: Disp-BC-136 Type: Displacement/Rotation
*Boundary
GRAIN-23.BOUNDARY_NODES_68_23, 2, 2
** Name: Disp-BC-137 Type: Displacement/Rotation
*Boundary
GRAIN-23.BOUNDARY_NODES_69_23, 1, 1, 0.005
** Name: Disp-BC-138 Type: Displacement/Rotation
*Boundary
GRAIN-23.BOUNDARY_NODES_69_23, 2, 2
** Name: Disp-BC-139 Type: Displacement/Rotation
*Boundary
GRAIN-23.BOUNDARY_NODES_70_23, 1, 1, -0.0048
** Name: Disp-BC-140 Type: Displacement/Rotation
*Boundary
GRAIN-23.BOUNDARY_NODES_70_23, 2, 2
** Name: Disp-BC-141 Type: Displacement/Rotation
*Boundary
GRAIN-23.BOUNDARY_NODES_71_23, 1, 1, -0.0048
** Name: Disp-BC-142 Type: Displacement/Rotation
*Boundary
GRAIN-23.BOUNDARY_NODES_71_23, 2, 2
** Name: Disp-BC-143 Type: Displacement/Rotation
*Boundary
GRAIN-23.BOUNDARY_NODES_72_23, 1, 1, -0.0048
** Name: Disp-BC-144 Type: Displacement/Rotation
*Boundary
GRAIN-23.BOUNDARY_NODES_72_23, 2, 2
** Name: Disp-BC-145 Type: Displacement/Rotation
*Boundary
GRAIN-23.BOUNDARY_NODES_73_23, 1, 1, -0.0048
** Name: Disp-BC-146 Type: Displacement/Rotation
*Boundary
GRAIN-23.BOUNDARY_NODES_73_23, 2, 2
** Name: Disp-BC-147 Type: Displacement/Rotation
*Boundary
GRAIN-23.BOUNDARY_NODES_74_23, 1, 1, -0.0048
** Name: Disp-BC-148 Type: Displacement/Rotation
*Boundary
GRAIN-23.BOUNDARY_NODES_74_23, 2, 2
** Name: Disp-BC-149 Type: Displacement/Rotation
*Boundary
GRAIN-23.BOUNDARY_NODES_75_23, 1, 1, -0.0048
** Name: Disp-BC-150 Type: Displacement/Rotation
*Boundary
GRAIN-23.BOUNDARY_NODES_75_23, 2, 2
** Name: Disp-BC-151 Type: Displacement/Rotation
*Boundary
GRAIN-23.BOUNDARY_NODES_76_23, 1, 1, -0.0048
** Name: Disp-BC-152 Type: Displacement/Rotation
*Boundary
GRAIN-23.BOUNDARY_NODES_76_23, 2, 2
** Name: Disp-BC-153 Type: Displacement/Rotation
*Boundary
GRAIN-23.BOUNDARY_NODES_77_23, 1, 1, -0.0048
** Name: Disp-BC-154 Type: Displacement/Rotation
*Boundary
GRAIN-23.BOUNDARY_NODES_77_23, 2, 2
** Name: Disp-BC-155 Type: Displacement/Rotation
*Boundary
GRAIN-23.BOUNDARY_NODES_78_23, 1, 1, 0.005
** Name: Disp-BC-156 Type: Displacement/Rotation
*Boundary
GRAIN-23.BOUNDARY_NODES_78_23, 2, 2
** Name: Disp-BC-157 Type: Displacement/Rotation
*Boundary
GRAIN-23.BOUNDARY_NODES_79_23, 1, 1, -0.0048
** Name: Disp-BC-158 Type: Displacement/Rotation
*Boundary
GRAIN-23.BOUNDARY_NODES_79_23, 2, 2
** Name: Disp-BC-159 Type: Displacement/Rotation
*Boundary
GRAIN-23.BOUNDARY_NODES_80_23, 1, 1, -0.0048
** Name: Disp-BC-160 Type: Displacement/Rotation
*Boundary
GRAIN-23.BOUNDARY_NODES_80_23, 2, 2
** Name: Disp-BC-161 Type: Displacement/Rotation
*Boundary
GRAIN-23.BOUNDARY_NODES_81_23, 1, 1, -0.0048
** Name: Disp-BC-162 Type: Displacement/Rotation
*Boundary
GRAIN-23.BOUNDARY_NODES_81_23, 2, 2
** Name: Disp-BC-163 Type: Displacement/Rotation
*Boundary
GRAIN-23.BOUNDARY_NODES_82_23, 1, 1, -0.0048
** Name: Disp-BC-164 Type: Displacement/Rotation
*Boundary
GRAIN-23.BOUNDARY_NODES_82_23, 2, 2
** Name: Disp-BC-165 Type: Displacement/Rotation
*Boundary
GRAIN-23.BOUNDARY_NODES_83_23, 1, 1, -0.0048
** Name: Disp-BC-166 Type: Displacement/Rotation
*Boundary
GRAIN-23.BOUNDARY_NODES_83_23, 2, 2
** Name: Disp-BC-167 Type: Displacement/Rotation
*Boundary
GRAIN-23.BOUNDARY_NODES_84_23, 1, 1, 0.005
** Name: Disp-BC-168 Type: Displacement/Rotation
*Boundary
GRAIN-23.BOUNDARY_NODES_84_23, 2, 2
** Name: Disp-BC-169 Type: Displacement/Rotation
*Boundary
GRAIN-23.BOUNDARY_NODES_85_23, 1, 1, 0.005
** Name: Disp-BC-170 Type: Displacement/Rotation
*Boundary
GRAIN-23.BOUNDARY_NODES_85_23, 2, 2
** Name: Disp-BC-171 Type: Displacement/Rotation
*Boundary
GRAIN-23.BOUNDARY_NODES_86_23, 1, 1, 0.005
** Name: Disp-BC-172 Type: Displacement/Rotation
*Boundary
GRAIN-23.BOUNDARY_NODES_86_23, 2, 2
** Name: Disp-BC-173 Type: Displacement/Rotation
*Boundary
GRAIN-23.BOUNDARY_NODES_87_23, 1, 1, 0.001625
** Name: Disp-BC-174 Type: Displacement/Rotation
*Boundary
GRAIN-23.BOUNDARY_NODES_87_23, 2, 2
** Name: Disp-BC-175 Type: Displacement/Rotation
*Boundary
GRAIN-23.BOUNDARY_NODES_88_23, 1, 1, 0.00175
** Name: Disp-BC-176 Type: Displacement/Rotation
*Boundary
GRAIN-23.BOUNDARY_NODES_88_23, 2, 2
** Name: Disp-BC-177 Type: Displacement/Rotation
*Boundary
GRAIN-23.BOUNDARY_NODES_89_23, 1, 1, 0.0015
** Name: Disp-BC-178 Type: Displacement/Rotation
*Boundary
GRAIN-23.BOUNDARY_NODES_89_23, 2, 2
** Name: Disp-BC-179 Type: Displacement/Rotation
*Boundary
GRAIN-23.BOUNDARY_NODES_90_23, 1, 1, 0.001875
** Name: Disp-BC-180 Type: Displacement/Rotation
*Boundary
GRAIN-23.BOUNDARY_NODES_90_23, 2, 2
** Name: Disp-BC-181 Type: Displacement/Rotation
*Boundary
GRAIN-23.BOUNDARY_NODES_91_23, 1, 1, 0.002
** Name: Disp-BC-182 Type: Displacement/Rotation
*Boundary
GRAIN-23.BOUNDARY_NODES_91_23, 2, 2
** Name: Disp-BC-183 Type: Displacement/Rotation
*Boundary
GRAIN-23.BOUNDARY_NODES_92_23, 1, 1, 0.001375
** Name: Disp-BC-184 Type: Displacement/Rotation
*Boundary
GRAIN-23.BOUNDARY_NODES_92_23, 2, 2
** Name: Disp-BC-185 Type: Displacement/Rotation
*Boundary
GRAIN-23.BOUNDARY_NODES_93_23, 1, 1, 0.00125
** Name: Disp-BC-186 Type: Displacement/Rotation
*Boundary
GRAIN-23.BOUNDARY_NODES_93_23, 2, 2
** Name: Disp-BC-187 Type: Displacement/Rotation
*Boundary
GRAIN-23.BOUNDARY_NODES_94_23, 1, 1, 0.00275
** Name: Disp-BC-188 Type: Displacement/Rotation
*Boundary
GRAIN-23.BOUNDARY_NODES_94_23, 2, 2
** Name: Disp-BC-189 Type: Displacement/Rotation
*Boundary
GRAIN-23.BOUNDARY_NODES_95_23, 1, 1, 0.003
** Name: Disp-BC-190 Type: Displacement/Rotation
*Boundary
GRAIN-23.BOUNDARY_NODES_95_23, 2, 2
** Name: Disp-BC-191 Type: Displacement/Rotation
*Boundary
GRAIN-23.BOUNDARY_NODES_96_23, 1, 1, 0.0025
** Name: Disp-BC-192 Type: Displacement/Rotation
*Boundary
GRAIN-23.BOUNDARY_NODES_96_23, 2, 2
** Name: Disp-BC-193 Type: Displacement/Rotation
*Boundary
GRAIN-23.BOUNDARY_NODES_97_23, 1, 1, 0.00225
** Name: Disp-BC-194 Type: Displacement/Rotation
*Boundary
GRAIN-23.BOUNDARY_NODES_97_23, 2, 2
** Name: Disp-BC-195 Type: Displacement/Rotation
*Boundary
GRAIN-23.BOUNDARY_NODES_98_23, 1, 1, 0.0035
** Name: Disp-BC-196 Type: Displacement/Rotation
*Boundary
GRAIN-23.BOUNDARY_NODES_98_23, 2, 2
** Name: Disp-BC-197 Type: Displacement/Rotation
*Boundary
GRAIN-23.BOUNDARY_NODES_99_23, 1, 1, 0.004
** Name: Disp-BC-198 Type: Displacement/Rotation
*Boundary
GRAIN-23.BOUNDARY_NODES_99_23, 2, 2
** Name: Disp-BC-199 Type: Displacement/Rotation
*Boundary
GRAIN-23.BOUNDARY_NODES_100_23, 1, 1, 0.0045
** Name: Disp-BC-200 Type: Displacement/Rotation
*Boundary
GRAIN-23.BOUNDARY_NODES_100_23, 2, 2
** Name: Disp-BC-201 Type: Displacement/Rotation
*Boundary
GRAIN-34.BOUNDARY_NODES_1_34, 1, 1, -0.0048
** Name: Disp-BC-202 Type: Displacement/Rotation
*Boundary
GRAIN-34.BOUNDARY_NODES_1_34, 2, 2
** Name: Disp-BC-203 Type: Displacement/Rotation
*Boundary
GRAIN-34.BOUNDARY_NODES_2_34, 1, 1, -0.0048
** Name: Disp-BC-204 Type: Displacement/Rotation
*Boundary
GRAIN-34.BOUNDARY_NODES_2_34, 2, 2
** Name: Disp-BC-205 Type: Displacement/Rotation
*Boundary
GRAIN-34.BOUNDARY_NODES_3_34, 1, 1, -0.0048
** Name: Disp-BC-206 Type: Displacement/Rotation
*Boundary
GRAIN-34.BOUNDARY_NODES_3_34, 2, 2
** Name: Disp-BC-207 Type: Displacement/Rotation
*Boundary
GRAIN-34.BOUNDARY_NODES_4_34, 1, 1, -0.0048
** Name: Disp-BC-208 Type: Displacement/Rotation
*Boundary
GRAIN-34.BOUNDARY_NODES_4_34, 2, 2
** Name: Disp-BC-209 Type: Displacement/Rotation
*Boundary
GRAIN-34.BOUNDARY_NODES_5_34, 1, 1, -0.0048
** Name: Disp-BC-210 Type: Displacement/Rotation
*Boundary
GRAIN-34.BOUNDARY_NODES_5_34, 2, 2
** Name: Disp-BC-211 Type: Displacement/Rotation
*Boundary
GRAIN-34.BOUNDARY_NODES_6_34, 1, 1, -0.0048
** Name: Disp-BC-212 Type: Displacement/Rotation
*Boundary
GRAIN-34.BOUNDARY_NODES_6_34, 2, 2
** Name: Disp-BC-213 Type: Displacement/Rotation
*Boundary
GRAIN-34.BOUNDARY_NODES_7_34, 1, 1, -0.0048
** Name: Disp-BC-214 Type: Displacement/Rotation
*Boundary
GRAIN-34.BOUNDARY_NODES_7_34, 2, 2
** Name: Disp-BC-215 Type: Displacement/Rotation
*Boundary
GRAIN-34.BOUNDARY_NODES_8_34, 1, 1, -0.0048
** Name: Disp-BC-216 Type: Displacement/Rotation
*Boundary
GRAIN-34.BOUNDARY_NODES_8_34, 2, 2
** Name: Disp-BC-217 Type: Displacement/Rotation
*Boundary
GRAIN-34.BOUNDARY_NODES_9_34, 1, 1, -0.0048
** Name: Disp-BC-218 Type: Displacement/Rotation
*Boundary
GRAIN-34.BOUNDARY_NODES_9_34, 2, 2
** Name: Disp-BC-219 Type: Displacement/Rotation
*Boundary
GRAIN-34.BOUNDARY_NODES_10_34, 1, 1, -0.0048
** Name: Disp-BC-220 Type: Displacement/Rotation
*Boundary
GRAIN-34.BOUNDARY_NODES_10_34, 2, 2
** Name: Disp-BC-221 Type: Displacement/Rotation
*Boundary
GRAIN-34.BOUNDARY_NODES_11_34, 1, 1, -0.0048
** Name: Disp-BC-222 Type: Displacement/Rotation
*Boundary
GRAIN-34.BOUNDARY_NODES_11_34, 2, 2
** Name: Disp-BC-223 Type: Displacement/Rotation
*Boundary
GRAIN-34.BOUNDARY_NODES_12_34, 1, 1, -0.0048
** Name: Disp-BC-224 Type: Displacement/Rotation
*Boundary
GRAIN-34.BOUNDARY_NODES_12_34, 2, 2
** Name: Disp-BC-225 Type: Displacement/Rotation
*Boundary
GRAIN-34.BOUNDARY_NODES_13_34, 1, 1, -0.0048
** Name: Disp-BC-226 Type: Displacement/Rotation
*Boundary
GRAIN-34.BOUNDARY_NODES_13_34, 2, 2
** Name: Disp-BC-227 Type: Displacement/Rotation
*Boundary
GRAIN-34.BOUNDARY_NODES_14_34, 1, 1, -0.0048
** Name: Disp-BC-228 Type: Displacement/Rotation
*Boundary
GRAIN-34.BOUNDARY_NODES_14_34, 2, 2
** Name: Disp-BC-229 Type: Displacement/Rotation
*Boundary
GRAIN-34.BOUNDARY_NODES_15_34, 1, 1, -0.0048
** Name: Disp-BC-230 Type: Displacement/Rotation
*Boundary
GRAIN-34.BOUNDARY_NODES_15_34, 2, 2
** Name: Disp-BC-231 Type: Displacement/Rotation
*Boundary
GRAIN-34.BOUNDARY_NODES_16_34, 1, 1, -0.0048
** Name: Disp-BC-232 Type: Displacement/Rotation
*Boundary
GRAIN-34.BOUNDARY_NODES_16_34, 2, 2
** Name: Disp-BC-233 Type: Displacement/Rotation
*Boundary
GRAIN-34.BOUNDARY_NODES_17_34, 1, 1, -0.0048
** Name: Disp-BC-234 Type: Displacement/Rotation
*Boundary
GRAIN-34.BOUNDARY_NODES_17_34, 2, 2
** Name: Disp-BC-235 Type: Displacement/Rotation
*Boundary
GRAIN-34.BOUNDARY_NODES_18_34, 1, 1, -0.0048
** Name: Disp-BC-236 Type: Displacement/Rotation
*Boundary
GRAIN-34.BOUNDARY_NODES_18_34, 2, 2
** Name: Disp-BC-237 Type: Displacement/Rotation
*Boundary
GRAIN-34.BOUNDARY_NODES_19_34, 1, 1, -0.0048
** Name: Disp-BC-238 Type: Displacement/Rotation
*Boundary
GRAIN-34.BOUNDARY_NODES_19_34, 2, 2
** Name: Disp-BC-239 Type: Displacement/Rotation
*Boundary
GRAIN-34.BOUNDARY_NODES_20_34, 1, 1, -0.0048
** Name: Disp-BC-240 Type: Displacement/Rotation
*Boundary
GRAIN-34.BOUNDARY_NODES_20_34, 2, 2
** Name: Disp-BC-241 Type: Displacement/Rotation
*Boundary
GRAIN-34.BOUNDARY_NODES_21_34, 1, 1, -0.00425
** Name: Disp-BC-242 Type: Displacement/Rotation
*Boundary
GRAIN-34.BOUNDARY_NODES_21_34, 2, 2
** Name: Disp-BC-243 Type: Displacement/Rotation
*Boundary
GRAIN-34.BOUNDARY_NODES_22_34, 1, 1, -0.0045
** Name: Disp-BC-244 Type: Displacement/Rotation
*Boundary
GRAIN-34.BOUNDARY_NODES_22_34, 2, 2
** Name: Disp-BC-245 Type: Displacement/Rotation
*Boundary
GRAIN-34.BOUNDARY_NODES_23_34, 1, 1, -0.004
** Name: Disp-BC-246 Type: Displacement/Rotation
*Boundary
GRAIN-34.BOUNDARY_NODES_23_34, 2, 2
** Name: Disp-BC-247 Type: Displacement/Rotation
*Boundary
GRAIN-34.BOUNDARY_NODES_24_34, 1, 1, -0.004625
** Name: Disp-BC-248 Type: Displacement/Rotation
*Boundary
GRAIN-34.BOUNDARY_NODES_24_34, 2, 2
** Name: Disp-BC-249 Type: Displacement/Rotation
*Boundary
GRAIN-34.BOUNDARY_NODES_25_34, 1, 1, -0.0035
** Name: Disp-BC-250 Type: Displacement/Rotation
*Boundary
GRAIN-34.BOUNDARY_NODES_25_34, 2, 2
** Name: Disp-BC-251 Type: Displacement/Rotation
*Boundary
GRAIN-34.BOUNDARY_NODES_26_34, 1, 1, -0.003
** Name: Disp-BC-252 Type: Displacement/Rotation
*Boundary
GRAIN-34.BOUNDARY_NODES_26_34, 2, 2
** Name: Disp-BC-253 Type: Displacement/Rotation
*Boundary
GRAIN-34.BOUNDARY_NODES_27_34, 1, 1, -0.002
** Name: Disp-BC-254 Type: Displacement/Rotation
*Boundary
GRAIN-34.BOUNDARY_NODES_27_34, 2, 2
** Name: Disp-BC-255 Type: Displacement/Rotation
*Boundary
GRAIN-34.BOUNDARY_NODES_28_34, 1, 1, -0.0015
** Name: Disp-BC-256 Type: Displacement/Rotation
*Boundary
GRAIN-34.BOUNDARY_NODES_28_34, 2, 2
** Name: Disp-BC-257 Type: Displacement/Rotation
*Boundary
GRAIN-34.BOUNDARY_NODES_29_34, 1, 1, -0.001
** Name: Disp-BC-258 Type: Displacement/Rotation
*Boundary
GRAIN-34.BOUNDARY_NODES_29_34, 2, 2
** Name: Disp-BC-259 Type: Displacement/Rotation
*Boundary
GRAIN-34.BOUNDARY_NODES_30_34, 1, 1, -0.0005
** Name: Disp-BC-260 Type: Displacement/Rotation
*Boundary
GRAIN-34.BOUNDARY_NODES_30_34, 2, 2
** Name: Disp-BC-261 Type: Displacement/Rotation
*Boundary
GRAIN-34.BOUNDARY_NODES_31_34, 1, 1
** Name: Disp-BC-262 Type: Displacement/Rotation
*Boundary
GRAIN-34.BOUNDARY_NODES_31_34, 2, 2
** Name: Disp-BC-263 Type: Displacement/Rotation
*Boundary
GRAIN-34.BOUNDARY_NODES_32_34, 1, 1, 0.00075
** Name: Disp-BC-264 Type: Displacement/Rotation
*Boundary
GRAIN-34.BOUNDARY_NODES_32_34, 2, 2
** Name: Disp-BC-265 Type: Displacement/Rotation
*Boundary
GRAIN-34.BOUNDARY_NODES_33_34, 1, 1, 0.0005
** Name: Disp-BC-266 Type: Displacement/Rotation
*Boundary
GRAIN-34.BOUNDARY_NODES_33_34, 2, 2
** Name: Disp-BC-267 Type: Displacement/Rotation
*Boundary
GRAIN-34.BOUNDARY_NODES_34_34, 1, 1, 0.000875
** Name: Disp-BC-268 Type: Displacement/Rotation
*Boundary
GRAIN-34.BOUNDARY_NODES_34_34, 2, 2
** Name: Disp-BC-269 Type: Displacement/Rotation
*Boundary
GRAIN-34.BOUNDARY_NODES_35_34, 1, 1, 0.001
** Name: Disp-BC-270 Type: Displacement/Rotation
*Boundary
GRAIN-34.BOUNDARY_NODES_35_34, 2, 2
** Name: Disp-BC-271 Type: Displacement/Rotation
*Boundary
GRAIN-34.BOUNDARY_NODES_36_34, 1, 1, 0.00025
** Name: Disp-BC-272 Type: Displacement/Rotation
*Boundary
GRAIN-34.BOUNDARY_NODES_36_34, 2, 2
** Name: Disp-BC-273 Type: Displacement/Rotation
*Boundary
GRAIN-34.BOUNDARY_NODES_37_34, 1, 1, 0.00125
** Name: Disp-BC-274 Type: Displacement/Rotation
*Boundary
GRAIN-34.BOUNDARY_NODES_37_34, 2, 2
** Name: Disp-BC-275 Type: Displacement/Rotation
*Boundary
GRAIN-34.BOUNDARY_NODES_38_34, 1, 1, 0.001125
** Name: Disp-BC-276 Type: Displacement/Rotation
*Boundary
GRAIN-34.BOUNDARY_NODES_38_34, 2, 2
** 
** OUTPUT REQUESTS
** 
*Restart, write, frequency=0
** 
** FIELD OUTPUT: F-Output-2
** 
*Output, field
*Element Output, directions=YES
E, EVOL, S
** 
** FIELD OUTPUT: F-Output-1
** 
*Node Output
U, 
*Output, history, frequency=0
*End Step
